************************************************************************
* auCdl Netlist:
* 
* Library Name:  tft3d_sc_t5
* Top Cell Name: AND2_X1RL_T5
* View Name:     schematic
* Netlisted on:  Mar  3 13:34:18 2026
************************************************************************

*.EQUATION
*.SCALE METER
*.MEGA
.PARAM



************************************************************************
* Library Name: tft3d_sc_t5
* Cell Name:    AND2_X1RL_T5
* View Name:    schematic
************************************************************************

.SUBCKT AND2_X1RL_T5 A1 A2 VDD VSS Y
*.PININFO A1:I A2:I Y:O VDD:B VSS:B
RR1 VDD Y $[resmod] $W=600n $L=88.8u m=1 trise=0 ncorners=8 flg_local_she=-1
RR0 VDD YN $[resmod] $W=600n $L=93.8u m=1 trise=0 ncorners=13 flg_local_she=-1
MM2 Y YN VSS nch W=1u L=600n m=1 trise=0 flg_local_she=-1
MM0 YN A1 net1 nch W=1u L=600n m=1 trise=0 flg_local_she=-1
MM1 net1 A2 VSS nch W=1u L=600n m=1 trise=0 flg_local_she=-1
.ENDS

************************************************************************
* auCdl Netlist:
* 
* Library Name:  tft3d_sc_t5
* Top Cell Name: AND2_X2RL_T5
* View Name:     schematic
* Netlisted on:  Mar  3 13:34:42 2026
************************************************************************

*.EQUATION
*.SCALE METER
*.MEGA
.PARAM



************************************************************************
* Library Name: tft3d_sc_t5
* Cell Name:    AND2_X2RL_T5
* View Name:    schematic
************************************************************************

.SUBCKT AND2_X2RL_T5 A1 A2 VDD VSS Y
*.PININFO A1:I A2:I Y:O VDD:B VSS:B
RR1 VDD Y $[resmod] $W=600n $L=44.5u m=1 trise=0 ncorners=4 flg_local_she=-1
RR0 VDD YN $[resmod] $W=600n $L=93.8u m=1 trise=0 ncorners=13 flg_local_she=-1
MM2 Y YN VSS nch W=1u L=600n m=1 trise=0 flg_local_she=-1
MM0 YN A1 net1 nch W=1u L=600n m=1 trise=0 flg_local_she=-1
MM1 net1 A2 VSS nch W=1u L=600n m=1 trise=0 flg_local_she=-1
.ENDS

************************************************************************
* auCdl Netlist:
* 
* Library Name:  tft3d_sc_t5
* Top Cell Name: AND2_X4RL_T5
* View Name:     schematic
* Netlisted on:  Mar  3 13:34:42 2026
************************************************************************

*.EQUATION
*.SCALE METER
*.MEGA
.PARAM



************************************************************************
* Library Name: tft3d_sc_t5
* Cell Name:    AND2_X4RL_T5
* View Name:    schematic
************************************************************************

.SUBCKT AND2_X4RL_T5 A1 A2 VDD VSS Y
*.PININFO A1:I A2:I Y:O VDD:B VSS:B
RR1 VDD Y $[resmod] $W=600n $L=24.3u m=1 trise=0 ncorners=4 flg_local_she=-1
RR0 VDD YN $[resmod] $W=600n $L=93.8u m=1 trise=0 ncorners=13 flg_local_she=-1
MM2 Y YN VSS nch W=1u L=600n m=1 trise=0 flg_local_she=-1
MM0 YN A1 net1 nch W=1u L=600n m=1 trise=0 flg_local_she=-1
MM1 net1 A2 VSS nch W=1u L=600n m=1 trise=0 flg_local_she=-1
.ENDS

************************************************************************
* auCdl Netlist:
* 
* Library Name:  tft3d_sc_t5
* Top Cell Name: AND3_X1RL_T5
* View Name:     schematic
* Netlisted on:  Mar  3 13:34:18 2026
************************************************************************

*.EQUATION
*.SCALE METER
*.MEGA
.PARAM



************************************************************************
* Library Name: tft3d_sc_t5
* Cell Name:    AND3_X1RL_T5
* View Name:    schematic
************************************************************************

.SUBCKT AND3_X1RL_T5 A1 A2 A3 VDD VSS Y
*.PININFO A1:I A2:I A3:I Y:O VDD:B VSS:B
RR3 VDD Y $[resmod] $W=600n $L=92.6u m=1 trise=0 ncorners=12 flg_local_she=-1
RR0 VDD net17 $[resmod] $W=600n $L=93.8u m=1 trise=0 ncorners=12 
+ flg_local_she=-1
MM3 net09 A3 VSS nch W=1u L=600n m=1 trise=0 flg_local_she=-1
MM2 Y net17 VSS nch W=1u L=600n m=1 trise=0 flg_local_she=-1
MM0 net17 A1 M0_S_M1_D nch W=1u L=600n m=1 trise=0 flg_local_she=-1
MM1 M0_S_M1_D A2 net09 nch W=1u L=600n m=1 trise=0 flg_local_she=-1
.ENDS

************************************************************************
* auCdl Netlist:
* 
* Library Name:  tft3d_sc_t5
* Top Cell Name: AND3_X2RL_T5
* View Name:     schematic
* Netlisted on:  Mar  3 13:34:21 2026
************************************************************************

*.EQUATION
*.SCALE METER
*.MEGA
.PARAM



************************************************************************
* Library Name: tft3d_sc_t5
* Cell Name:    AND3_X2RL_T5
* View Name:    schematic
************************************************************************

.SUBCKT AND3_X2RL_T5 A1 A2 A3 VDD VSS Y
*.PININFO A1:I A2:I A3:I Y:O VDD:B VSS:B
RR2 VDD YN $[resmod] $W=600n $L=93.8u m=1 trise=0 ncorners=12 flg_local_she=-1
RR1 VDD Y $[resmod] $W=600n $L=52.6u m=1 trise=0 ncorners=12 flg_local_she=-1
MM3 Y YN VSS nch W=1u L=600n m=1 trise=0 flg_local_she=-1
MM0 YN A1 net1 nch W=1u L=600n m=1 trise=0 flg_local_she=-1
MM1 net1 A2 net2 nch W=1u L=600n m=1 trise=0 flg_local_she=-1
MM2 net2 A3 VSS nch W=1u L=600n m=1 trise=0 flg_local_she=-1
.ENDS

************************************************************************
* auCdl Netlist:
* 
* Library Name:  tft3d_sc_t5
* Top Cell Name: AND3_X4RL_T5
* View Name:     schematic
* Netlisted on:  Mar  3 13:34:22 2026
************************************************************************

*.EQUATION
*.SCALE METER
*.MEGA
.PARAM



************************************************************************
* Library Name: tft3d_sc_t5
* Cell Name:    AND3_X4RL_T5
* View Name:    schematic
************************************************************************

.SUBCKT AND3_X4RL_T5 A1 A2 A3 VDD VSS Y
*.PININFO A1:I A2:I A3:I Y:O VDD:B VSS:B
RR0 VDD YN $[resmod] $W=600n $L=93.8u m=1 trise=0 ncorners=12 flg_local_she=-1
RR1 VDD Y $[resmod] $W=600n $L=24.1u m=1 trise=0 ncorners=4 flg_local_she=-1
MM3 Y YN VSS nch W=1u L=600n m=1 trise=0 flg_local_she=-1
MM0 YN A1 net1 nch W=1u L=600n m=1 trise=0 flg_local_she=-1
MM1 net1 A2 net2 nch W=1u L=600n m=1 trise=0 flg_local_she=-1
MM2 net2 A3 VSS nch W=1u L=600n m=1 trise=0 flg_local_she=-1
.ENDS

************************************************************************
* auCdl Netlist:
* 
* Library Name:  tft3d_sc_t5
* Top Cell Name: AND4_X1RL_T5
* View Name:     schematic
* Netlisted on:  Mar  3 13:34:19 2026
************************************************************************

*.EQUATION
*.SCALE METER
*.MEGA
.PARAM



************************************************************************
* Library Name: tft3d_sc_t5
* Cell Name:    AND4_X1RL_T5
* View Name:    schematic
************************************************************************

.SUBCKT AND4_X1RL_T5 A1 A2 A3 A4 VDD VSS Y
*.PININFO A1:I A2:I A3:I A4:I Y:O VDD:B VSS:B
RR3 VDD Y $[resmod] $W=600n $L=92.6u m=1 trise=0 ncorners=12 flg_local_she=-1
RR0 VDD net17 $[resmod] $W=600n $L=94.0u m=1 trise=0 ncorners=12 
+ flg_local_she=-1
MM4 net010 A4 VSS nch W=1u L=600n m=1 trise=0 flg_local_she=-1
MM3 net09 A3 net010 nch W=1u L=600n m=1 trise=0 flg_local_she=-1
MM2 Y net17 VSS nch W=1u L=600n m=1 trise=0 flg_local_she=-1
MM0 net17 A1 M0_S_M1_D nch W=1u L=600n m=1 trise=0 flg_local_she=-1
MM1 M0_S_M1_D A2 net09 nch W=1u L=600n m=1 trise=0 flg_local_she=-1
.ENDS

************************************************************************
* auCdl Netlist:
* 
* Library Name:  tft3d_sc_t5
* Top Cell Name: AND4_X2RL_T5
* View Name:     schematic
* Netlisted on:  Mar  3 13:34:49 2026
************************************************************************

*.EQUATION
*.SCALE METER
*.MEGA
.PARAM



************************************************************************
* Library Name: tft3d_sc_t5
* Cell Name:    AND4_X2RL_T5
* View Name:    schematic
************************************************************************

.SUBCKT AND4_X2RL_T5 A1 A2 A3 A4 VDD VSS Y
*.PININFO A1:I A2:I A3:I A4:I Y:O VDD:B VSS:B
RR1 VDD Y $[resmod] $W=600n $L=49.0u m=1 trise=0 ncorners=8 flg_local_she=-1
RR0 VDD YN $[resmod] $W=600n $L=94.0u m=1 trise=0 ncorners=13 flg_local_she=-1
MM4 Y YN VSS nch W=1u L=600n m=1 trise=0 flg_local_she=-1
MM0 YN A1 net1 nch W=1u L=600n m=1 trise=0 flg_local_she=-1
MM1 net1 A2 net2 nch W=1u L=600n m=1 trise=0 flg_local_she=-1
MM2 net2 A3 net3 nch W=1u L=600n m=1 trise=0 flg_local_she=-1
MM3 net3 A4 VSS nch W=1u L=600n m=1 trise=0 flg_local_she=-1
.ENDS

************************************************************************
* auCdl Netlist:
* 
* Library Name:  tft3d_sc_t5
* Top Cell Name: AND4_X4RL_T5
* View Name:     schematic
* Netlisted on:  Mar  3 13:34:32 2026
************************************************************************

*.EQUATION
*.SCALE METER
*.MEGA
.PARAM



************************************************************************
* Library Name: tft3d_sc_t5
* Cell Name:    AND4_X4RL_T5
* View Name:    schematic
************************************************************************

.SUBCKT AND4_X4RL_T5 A1 A2 A3 A4 VDD VSS Y
*.PININFO A1:I A2:I A3:I A4:I Y:O VDD:B VSS:B
RR0 VDD YN $[resmod] $W=600n $L=94.0u m=1 trise=0 ncorners=13 flg_local_she=-1
RR1 VDD Y $[resmod] $W=600n $L=28.0u m=1 trise=0 ncorners=8 flg_local_she=-1
MM4 Y YN VSS nch W=1u L=600n m=1 trise=0 flg_local_she=-1
MM0 YN A1 net1 nch W=1u L=600n m=1 trise=0 flg_local_she=-1
MM1 net1 A2 net2 nch W=1u L=600n m=1 trise=0 flg_local_she=-1
MM2 net2 A3 net3 nch W=1u L=600n m=1 trise=0 flg_local_she=-1
MM3 net3 A4 VSS nch W=1u L=600n m=1 trise=0 flg_local_she=-1
.ENDS

************************************************************************
* auCdl Netlist:
* 
* Library Name:  tft3d_sc_t5
* Top Cell Name: AOI211_X1RL_T5
* View Name:     schematic
* Netlisted on:  Mar  3 13:35:19 2026
************************************************************************

*.EQUATION
*.SCALE METER
*.MEGA
.PARAM



************************************************************************
* Library Name: tft3d_sc_t5
* Cell Name:    AOI211_X1RL_T5
* View Name:    schematic
************************************************************************

.SUBCKT AOI211_X1RL_T5 A1 A2 B C VDD VSS Y
*.PININFO A1:I A2:I B:I C:I Y:O VDD:B VSS:B
RR0 VDD Y $[resmod] $W=600n $L=92.7u m=1 trise=0 ncorners=12 flg_local_she=-1
MM3 Y C VSS nch W=1u L=600n m=1 trise=0 flg_local_she=-1
MM0 Y A1 M0_S_M1_D nch W=1u L=600n m=1 trise=0 flg_local_she=-1
MM1 M0_S_M1_D A2 VSS nch W=1u L=600n m=1 trise=0 flg_local_she=-1
MM2 Y B VSS nch W=1u L=600n m=1 trise=0 flg_local_she=-1
.ENDS

************************************************************************
* auCdl Netlist:
* 
* Library Name:  tft3d_sc_t5
* Top Cell Name: AOI211_X2RL_T5
* View Name:     schematic
* Netlisted on:  Mar  3 13:34:37 2026
************************************************************************

*.EQUATION
*.SCALE METER
*.MEGA
.PARAM



************************************************************************
* Library Name: tft3d_sc_t5
* Cell Name:    AOI211_X2RL_T5
* View Name:    schematic
************************************************************************

.SUBCKT AOI211_X2RL_T5 A1 A2 B C VDD VSS Y
*.PININFO A1:I A2:I B:I C:I Y:O VDD:B VSS:B
RR0 VDD Y $[resmod] $W=600n $L=48.5u m=1 trise=0 ncorners=8 flg_local_she=-1
MM3 Y C VSS nch W=1u L=600n m=1 trise=0 flg_local_she=-1
MM0 Y A1 M0_S_M1_D nch W=1u L=600n m=1 trise=0 flg_local_she=-1
MM1 M0_S_M1_D A2 VSS nch W=1u L=600n m=1 trise=0 flg_local_she=-1
MM2 Y B VSS nch W=1u L=600n m=1 trise=0 flg_local_she=-1
.ENDS

************************************************************************
* auCdl Netlist:
* 
* Library Name:  tft3d_sc_t5
* Top Cell Name: AOI211_X4RL_T5
* View Name:     schematic
* Netlisted on:  Mar  3 13:34:37 2026
************************************************************************

*.EQUATION
*.SCALE METER
*.MEGA
.PARAM



************************************************************************
* Library Name: tft3d_sc_t5
* Cell Name:    AOI211_X4RL_T5
* View Name:    schematic
************************************************************************

.SUBCKT AOI211_X4RL_T5 A1 A2 B C VDD VSS Y
*.PININFO A1:I A2:I B:I C:I Y:O VDD:B VSS:B
RR0 VDD Y $[resmod] $W=600n $L=24.1u m=1 trise=0 ncorners=4 flg_local_she=-1
MM3 Y C VSS nch W=1u L=600n m=1 trise=0 flg_local_she=-1
MM0 Y A1 M0_S_M1_D nch W=1u L=600n m=1 trise=0 flg_local_she=-1
MM1 M0_S_M1_D A2 VSS nch W=1u L=600n m=1 trise=0 flg_local_she=-1
MM2 Y B VSS nch W=1u L=600n m=1 trise=0 flg_local_she=-1
.ENDS

************************************************************************
* auCdl Netlist:
* 
* Library Name:  tft3d_sc_t5
* Top Cell Name: AOI21_X1RL_T5
* View Name:     schematic
* Netlisted on:  Mar  3 13:34:20 2026
************************************************************************

*.EQUATION
*.SCALE METER
*.MEGA
.PARAM



************************************************************************
* Library Name: tft3d_sc_t5
* Cell Name:    AOI21_X1RL_T5
* View Name:    schematic
************************************************************************

.SUBCKT AOI21_X1RL_T5 A1 A2 B VDD VSS Y
*.PININFO A1:I A2:I B:I Y:O VDD:B VSS:B
RR0 VDD Y $[resmod] $W=600n $L=92.7u m=1 trise=0 ncorners=12 flg_local_she=-1
MM2 Y B VSS nch W=1u L=600n m=1 trise=0 flg_local_she=-1
MM0 Y A1 M0_S_M1_D nch W=1u L=600n m=1 trise=0 flg_local_she=-1
MM1 M0_S_M1_D A2 VSS nch W=1u L=600n m=1 trise=0 flg_local_she=-1
.ENDS

************************************************************************
* auCdl Netlist:
* 
* Library Name:  tft3d_sc_t5
* Top Cell Name: AOI21_X2RL_T5
* View Name:     schematic
* Netlisted on:  Mar  3 13:34:31 2026
************************************************************************

*.EQUATION
*.SCALE METER
*.MEGA
.PARAM



************************************************************************
* Library Name: tft3d_sc_t5
* Cell Name:    AOI21_X2RL_T5
* View Name:    schematic
************************************************************************

.SUBCKT AOI21_X2RL_T5 A1 A2 B VDD VSS Y
*.PININFO A1:I A2:I B:I Y:O VDD:B VSS:B
RR0 VDD Y $[resmod] $W=600n $L=52.1u m=1 trise=0 ncorners=12 flg_local_she=-1
MM2 Y B VSS nch W=1u L=600n m=1 trise=0 flg_local_she=-1
MM0 Y A1 M0_S_M1_D nch W=1u L=600n m=1 trise=0 flg_local_she=-1
MM1 M0_S_M1_D A2 VSS nch W=1u L=600n m=1 trise=0 flg_local_she=-1
.ENDS

************************************************************************
* auCdl Netlist:
* 
* Library Name:  tft3d_sc_t5
* Top Cell Name: AOI21_X4RL_T5
* View Name:     schematic
* Netlisted on:  Mar  3 13:34:31 2026
************************************************************************

*.EQUATION
*.SCALE METER
*.MEGA
.PARAM



************************************************************************
* Library Name: tft3d_sc_t5
* Cell Name:    AOI21_X4RL_T5
* View Name:    schematic
************************************************************************

.SUBCKT AOI21_X4RL_T5 A1 A2 B VDD VSS Y
*.PININFO A1:I A2:I B:I Y:O VDD:B VSS:B
RR0 VDD Y $[resmod] $W=600n $L=28.0u m=1 trise=0 ncorners=8 flg_local_she=-1
MM2 Y B VSS nch W=1u L=600n m=1 trise=0 flg_local_she=-1
MM0 Y A1 M0_S_M1_D nch W=1u L=600n m=1 trise=0 flg_local_she=-1
MM1 M0_S_M1_D A2 VSS nch W=1u L=600n m=1 trise=0 flg_local_she=-1
.ENDS

************************************************************************
* auCdl Netlist:
* 
* Library Name:  tft3d_sc_t5
* Top Cell Name: AOI22_X1RL_T5
* View Name:     schematic
* Netlisted on:  Mar  3 13:34:21 2026
************************************************************************

*.EQUATION
*.SCALE METER
*.MEGA
.PARAM



************************************************************************
* Library Name: tft3d_sc_t5
* Cell Name:    AOI22_X1RL_T5
* View Name:    schematic
************************************************************************

.SUBCKT AOI22_X1RL_T5 A1 A2 B1 B2 VDD VSS Y
*.PININFO A1:I A2:I B1:I B2:I Y:O VDD:B VSS:B
RR0 VDD Y $[resmod] $W=600n $L=92.7u m=1 trise=0 ncorners=12 flg_local_she=-1
MM3 net20 B2 VSS nch W=1u L=600n m=1 trise=0 flg_local_she=-1
MM0 Y A1 M0_S_M1_D nch W=1u L=600n m=1 trise=0 flg_local_she=-1
MM1 M0_S_M1_D A2 VSS nch W=1u L=600n m=1 trise=0 flg_local_she=-1
MM2 Y B1 net20 nch W=1u L=600n m=1 trise=0 flg_local_she=-1
.ENDS

************************************************************************
* auCdl Netlist:
* 
* Library Name:  tft3d_sc_t5
* Top Cell Name: AOI22_X2RL_T5
* View Name:     schematic
* Netlisted on:  Mar  3 13:34:22 2026
************************************************************************

*.EQUATION
*.SCALE METER
*.MEGA
.PARAM



************************************************************************
* Library Name: tft3d_sc_t5
* Cell Name:    AOI22_X2RL_T5
* View Name:    schematic
************************************************************************

.SUBCKT AOI22_X2RL_T5 A1 A2 B1 B2 VDD VSS Y
*.PININFO A1:I A2:I B1:I B2:I Y:O VDD:B VSS:B
RR0 VDD Y $[resmod] $W=600n $L=48.5u m=1 trise=0 ncorners=8 flg_local_she=-1
MM3 net20 B2 VSS nch W=1u L=600n m=1 trise=0 flg_local_she=-1
MM0 Y A1 M0_S_M1_D nch W=1u L=600n m=1 trise=0 flg_local_she=-1
MM1 M0_S_M1_D A2 VSS nch W=1u L=600n m=1 trise=0 flg_local_she=-1
MM2 Y B1 net20 nch W=1u L=600n m=1 trise=0 flg_local_she=-1
.ENDS

************************************************************************
* auCdl Netlist:
* 
* Library Name:  tft3d_sc_t5
* Top Cell Name: AOI22_X4RL_T5
* View Name:     schematic
* Netlisted on:  Mar  3 13:34:43 2026
************************************************************************

*.EQUATION
*.SCALE METER
*.MEGA
.PARAM



************************************************************************
* Library Name: tft3d_sc_t5
* Cell Name:    AOI22_X4RL_T5
* View Name:    schematic
************************************************************************

.SUBCKT AOI22_X4RL_T5 A1 A2 B1 B2 VDD VSS Y
*.PININFO A1:I A2:I B1:I B2:I Y:O VDD:B VSS:B
RR0 VDD Y $[resmod] $W=600n $L=24.1u m=1 trise=0 ncorners=4 flg_local_she=-1
MM3 net20 B2 VSS nch W=2u L=600n m=1 trise=0 flg_local_she=-1
MM0 Y A1 M0_S_M1_D nch W=2u L=600n m=1 trise=0 flg_local_she=-1
MM1 M0_S_M1_D A2 VSS nch W=2u L=600n m=1 trise=0 flg_local_she=-1
MM2 Y B1 net20 nch W=2u L=600n m=1 trise=0 flg_local_she=-1
.ENDS

************************************************************************
* auCdl Netlist:
* 
* Library Name:  tft3d_sc_t5
* Top Cell Name: BUF_X1PC_T5
* View Name:     schematic
* Netlisted on:  Mar  3 13:34:31 2026
************************************************************************

*.EQUATION
*.SCALE METER
*.MEGA
.PARAM



************************************************************************
* Library Name: tft3d_sc_t5
* Cell Name:    BUF_X1PC_T5
* View Name:    schematic
************************************************************************

.SUBCKT BUF_X1PC_T5 A VDD VSS Y
*.PININFO A:I Y:O VDD:B VSS:B
RR1 VDD ANN $[resmod] $W=600n $L=90.6u m=1 trise=0 ncorners=10 flg_local_she=-1
RR0 VDD AN $[resmod] $W=600n $L=92.7u m=1 trise=0 ncorners=12 flg_local_she=-1
MM3 Y AN VSS nch W=1u L=600n m=1 trise=0 flg_local_she=-1
MM2 VDD ANN Y nch W=1u L=600n m=1 trise=0 flg_local_she=-1
MM1 ANN AN VSS nch W=1u L=600n m=1 trise=0 flg_local_she=-1
MM0 AN A VSS nch W=1u L=600n m=1 trise=0 flg_local_she=-1
.ENDS

************************************************************************
* auCdl Netlist:
* 
* Library Name:  tft3d_sc_t5
* Top Cell Name: BUF_X1RL_T5
* View Name:     schematic
* Netlisted on:  Mar  3 13:34:22 2026
************************************************************************

*.EQUATION
*.SCALE METER
*.MEGA
.PARAM



************************************************************************
* Library Name: tft3d_sc_t5
* Cell Name:    BUF_X1RL_T5
* View Name:    schematic
************************************************************************

.SUBCKT BUF_X1RL_T5 A VDD VSS Y
*.PININFO A:I Y:O VDD:B VSS:B
RR1 VDD Y $[resmod] $W=600n $L=96.4u m=1 trise=0 ncorners=16 flg_local_she=-1
RR0 VDD ABAR $[resmod] $W=600n $L=98.6u m=1 trise=0 ncorners=18 
+ flg_local_she=-1
MM1 Y ABAR VSS nch W=1u L=600n m=1 trise=0 flg_local_she=-1
MM0 ABAR A VSS nch W=1u L=600n m=1 trise=0 flg_local_she=-1
.ENDS

************************************************************************
* auCdl Netlist:
* 
* Library Name:  tft3d_sc_t5
* Top Cell Name: BUF_X2PC_T5
* View Name:     schematic
* Netlisted on:  Mar  3 13:34:22 2026
************************************************************************

*.EQUATION
*.SCALE METER
*.MEGA
.PARAM



************************************************************************
* Library Name: tft3d_sc_t5
* Cell Name:    BUF_X2PC_T5
* View Name:    schematic
************************************************************************

.SUBCKT BUF_X2PC_T5 A VDD VSS Y
*.PININFO A:I Y:O VDD:B VSS:B
RR1 VDD ANN $[resmod] $W=600n $L=48.2u m=1 trise=0 ncorners=8 flg_local_she=-1
RR0 VDD AN $[resmod] $W=600n $L=92.7u m=1 trise=0 ncorners=12 flg_local_she=-1
MM3 Y AN VSS nch W=2u L=600n m=1 trise=0 flg_local_she=-1
MM2 VDD ANN Y nch W=2u L=600n m=1 trise=0 flg_local_she=-1
MM1 ANN AN VSS nch W=2u L=600n m=1 trise=0 flg_local_she=-1
MM0 AN A VSS nch W=1u L=600n m=1 trise=0 flg_local_she=-1
.ENDS

************************************************************************
* auCdl Netlist:
* 
* Library Name:  tft3d_sc_t5
* Top Cell Name: BUF_X2RL_T5
* View Name:     schematic
* Netlisted on:  Mar  3 13:34:31 2026
************************************************************************

*.EQUATION
*.SCALE METER
*.MEGA
.PARAM



************************************************************************
* Library Name: tft3d_sc_t5
* Cell Name:    BUF_X2RL_T5
* View Name:    schematic
************************************************************************

.SUBCKT BUF_X2RL_T5 A VDD VSS Y
*.PININFO A:I Y:O VDD:B VSS:B
RR1 VDD Y $[resmod] $W=600n $L=50.6u m=1 trise=0 ncorners=12 flg_local_she=-1
RR0 VDD AN $[resmod] $W=600n $L=98.6u m=1 trise=0 ncorners=18 flg_local_she=-1
MM0 AN A VSS nch W=1u L=600n m=1 trise=0 flg_local_she=-1
MM1 Y AN VSS nch W=1u L=600n m=1 trise=0 flg_local_she=-1
.ENDS

************************************************************************
* auCdl Netlist:
* 
* Library Name:  tft3d_sc_t5
* Top Cell Name: BUF_X4PC_T5
* View Name:     schematic
* Netlisted on:  Mar  3 13:34:23 2026
************************************************************************

*.EQUATION
*.SCALE METER
*.MEGA
.PARAM



************************************************************************
* Library Name: tft3d_sc_t5
* Cell Name:    BUF_X4PC_T5
* View Name:    schematic
************************************************************************

.SUBCKT BUF_X4PC_T5 A VDD VSS Y
*.PININFO A:I Y:O VDD:B VSS:B
RR1 VDD ANN $[resmod] $W=600n $L=28.0u m=1 trise=0 ncorners=6 flg_local_she=-1
RR0 VDD AN $[resmod] $W=600n $L=91.3u m=1 trise=0 ncorners=12 flg_local_she=-1
MM3 Y AN VSS nch W=4u L=600n m=1 trise=0 flg_local_she=-1
MM2 VDD ANN Y nch W=4u L=600n m=1 trise=0 flg_local_she=-1
MM1 ANN AN VSS nch W=4u L=600n m=1 trise=0 flg_local_she=-1
MM0 AN A VSS nch W=1u L=600n m=1 trise=0 flg_local_she=-1
.ENDS

************************************************************************
* auCdl Netlist:
* 
* Library Name:  tft3d_sc_t5
* Top Cell Name: BUF_X4RL_T5
* View Name:     schematic
* Netlisted on:  Mar  3 13:34:23 2026
************************************************************************

*.EQUATION
*.SCALE METER
*.MEGA
.PARAM



************************************************************************
* Library Name: tft3d_sc_t5
* Cell Name:    BUF_X4RL_T5
* View Name:    schematic
************************************************************************

.SUBCKT BUF_X4RL_T5 A VDD VSS Y
*.PININFO A:I Y:O VDD:B VSS:B
RR1 VDD Y $[resmod] $W=600n $L=29.8u m=1 trise=0 ncorners=12 flg_local_she=-1
RR0 VDD ABAR $[resmod] $W=600n $L=98.6u m=1 trise=0 ncorners=18 
+ flg_local_she=-1
MM1 Y ABAR VSS nch W=2u L=600n m=1 trise=0 flg_local_she=-1
MM0 ABAR A VSS nch W=1u L=600n m=1 trise=0 flg_local_she=-1
.ENDS

************************************************************************
* auCdl Netlist:
* 
* Library Name:  tft3d_sc_t5
* Top Cell Name: CLKBUF_F2X2PC_T5
* View Name:     schematic
* Netlisted on:  Mar  3 13:34:23 2026
************************************************************************

*.EQUATION
*.SCALE METER
*.MEGA
.PARAM



************************************************************************
* Library Name: tft3d_sc_t5
* Cell Name:    CLKBUF_F2X2PC_T5
* View Name:    schematic
************************************************************************

.SUBCKT CLKBUF_F2X2PC_T5 Y VDD VSS A
*.PININFO A:I Y:O VDD:B VSS:B
RR1 VDD ANN $[resmod] $W=600n $L=13.0u m=1 trise=0 ncorners=4 flg_local_she=-1
RR0 VDD AN $[resmod] $W=600n $L=13.0u m=1 trise=0 ncorners=4 flg_local_she=-1
MM3 Y AN VSS nch W=2u L=600n m=1 trise=0 flg_local_she=-1
MM2 VDD ANN Y nch W=2u L=600n m=1 trise=0 flg_local_she=-1
MM1 ANN AN VSS nch W=1u L=600n m=1 trise=0 flg_local_she=-1
MM0 AN A VSS nch W=4u L=600n m=1 trise=0 flg_local_she=-1
.ENDS

************************************************************************
* auCdl Netlist:
* 
* Library Name:  tft3d_sc_t5
* Top Cell Name: CLKBUF_F4X2PC_T5
* View Name:     schematic
* Netlisted on:  Mar  3 13:34:23 2026
************************************************************************

*.EQUATION
*.SCALE METER
*.MEGA
.PARAM



************************************************************************
* Library Name: tft3d_sc_t5
* Cell Name:    CLKBUF_F4X2PC_T5
* View Name:    schematic
************************************************************************

.SUBCKT CLKBUF_F4X2PC_T5 Y VDD VSS A
*.PININFO A:I Y:O VDD:B VSS:B
RR1 VDD ANN $[resmod] $W=600n $L=3u m=1 trise=0 ncorners=0 flg_local_she=-1
RR2 VDD AN $[resmod] $W=600n $L=4.3u m=1 trise=0 ncorners=0 flg_local_she=-1
MM3 Y AN VSS nch W=2u L=600n m=1 trise=0 flg_local_she=-1
MM2 VDD ANN Y nch W=4u L=600n m=1 trise=0 flg_local_she=-1
MM1 ANN AN VSS nch W=1u L=600n m=1 trise=0 flg_local_she=-1
MM0 AN A VSS nch W=4u L=600n m=1 trise=0 flg_local_she=-1
.ENDS

************************************************************************
* auCdl Netlist:
* 
* Library Name:  tft3d_sc_t5
* Top Cell Name: CLKBUF_X2PC_T5
* View Name:     schematic
* Netlisted on:  Mar  3 13:34:23 2026
************************************************************************

*.EQUATION
*.SCALE METER
*.MEGA
.PARAM



************************************************************************
* Library Name: tft3d_sc_t5
* Cell Name:    CLKBUF_X2PC_T5
* View Name:    schematic
************************************************************************

.SUBCKT CLKBUF_X2PC_T5 Y VDD VSS A
*.PININFO A:I Y:O VDD:B VSS:B
RR1 VDD ANN $[resmod] $W=600n $L=23.0u m=1 trise=0 ncorners=8 flg_local_she=-1
RR0 VDD AN $[resmod] $W=600n $L=23.0u m=1 trise=0 ncorners=8 flg_local_she=-1
MM3 Y AN VSS nch W=2u L=600n m=1 trise=0 flg_local_she=-1
MM2 VDD ANN Y nch W=2u L=600n m=1 trise=0 flg_local_she=-1
MM1 ANN AN VSS nch W=1u L=600n m=1 trise=0 flg_local_she=-1
MM0 AN A VSS nch W=1u L=600n m=1 trise=0 flg_local_she=-1
.ENDS

************************************************************************
* auCdl Netlist:
* 
* Library Name:  tft3d_sc_t5
* Top Cell Name: CLKBUF_X8PC_T5
* View Name:     schematic
* Netlisted on:  Mar  3 13:34:32 2026
************************************************************************

*.EQUATION
*.SCALE METER
*.MEGA
.PARAM



************************************************************************
* Library Name: tft3d_sc_t5
* Cell Name:    CLKBUF_X8PC_T5
* View Name:    schematic
************************************************************************

.SUBCKT CLKBUF_X8PC_T5 Y VDD VSS A
*.PININFO A:I Y:O VDD:B VSS:B
RR3 VDD AN $[resmod] $W=600n $L=26.2u m=1 trise=0 ncorners=12 flg_local_she=-1
RR1 VDD ANN $[resmod] $W=600n $L=14.2u m=1 trise=0 ncorners=4 flg_local_she=-1
MM3 Y AN VSS nch W=8u L=600n m=1 trise=0 flg_local_she=-1
MM2 VDD ANN Y nch W=8u L=600n m=1 trise=0 flg_local_she=-1
MM1 ANN AN VSS nch W=2u L=600n m=1 trise=0 flg_local_she=-1
MM0 AN A VSS nch W=2u L=600n m=1 trise=0 flg_local_she=-1
.ENDS

************************************************************************
* auCdl Netlist:
* 
* Library Name:  tft3d_sc_t5
* Top Cell Name: DFFC_F2X1PC_T5
* View Name:     schematic
* Netlisted on:  Mar  3 13:34:24 2026
************************************************************************

*.EQUATION
*.SCALE METER
*.MEGA
.PARAM



************************************************************************
* Library Name: tft3d_sc_t5
* Cell Name:    DFFC_F2X1PC_T5
* View Name:    schematic
************************************************************************

.SUBCKT DFFC_F2X1PC_T5 Q QN VDD VSS CLK CLR D
*.PININFO CLK:I CLR:I D:I Q:O QN:O VDD:B VSS:B
RR2 VDD MN $[resmod] $W=600n $L=92.2u m=1 trise=0 ncorners=16 flg_local_she=-1
RR3 VDD M $[resmod] $W=600n $L=98.6u m=1 trise=0 ncorners=18 flg_local_she=-1
RR4 VDD SN $[resmod] $W=600n $L=50.6u m=1 trise=0 ncorners=8 flg_local_she=-1
RR5 VDD S $[resmod] $W=600n $L=50.6u m=1 trise=0 ncorners=10 flg_local_she=-1
RR0 VDD CLKN $[resmod] $W=600n $L=24.1u m=1 trise=0 ncorners=4 flg_local_she=-1
RR1 VDD CLKNN $[resmod] $W=600n $L=24.1u m=1 trise=0 ncorners=4 
+ flg_local_she=-1
MM2 D CLKN D_ nch W=1u L=600n m=1 trise=0 flg_local_she=-1
MM3 D_ CLKNN M nch W=1u L=600n m=1 trise=0 flg_local_she=-1
MM4 MN D_ VSS nch W=1u L=600n m=1 trise=0 flg_local_she=-1
MM5 M MN VSS nch W=1u L=600n m=1 trise=0 flg_local_she=-1
MM6 MN CLKNN MN_ nch W=1u L=600n m=1 trise=0 flg_local_she=-1
MM7 MN_ CLKN S nch W=1u L=600n m=1 trise=0 flg_local_she=-1
MM8 SN MN_ VSS nch W=1u L=600n m=1 trise=0 flg_local_she=-1
MM9 S SN VSS nch W=1u L=600n m=1 trise=0 flg_local_she=-1
MM0 CLKN CLK VSS nch W=1u L=600n m=1 trise=0 flg_local_she=-1
MM1 CLKNN CLKN VSS nch W=1u L=600n m=1 trise=0 flg_local_she=-1
MM10 QN SN VSS nch W=1u L=600n m=1 trise=0 flg_local_she=-1
MM11 Q S VSS nch W=1u L=600n m=1 trise=0 flg_local_she=-1